src/test/resources/pst_special/process1/20260620_1130_2D3_AT3.uct
##C 2007.05.01
##N
##ZAT
OGREUT21 Greuth       0 0        .000000 .000000 6.50780 2.01268 0.86641 1.77939 7.98097 4.45104 
OLIENN11 Lienz        0 0        .000000 .000000 1.18928 6.88954 1.21374 0.29212 4.64680 1.31792 
OLIENN12 Lienz        0 0        .000000 .000000 6.98356 1.38481 7.55935 2.79374 4.38331 8.16554 
OLIENN21 Lienz        0 0        .000000 .000000 7.86494 -65.387 6.66583 1.63156 .000000 -54.694 
OLIENN22 Lienz        0 0        .000000 .000000 0.23945 5.06946 7.08705 8.83517 7.93133 6.24220 
OLIENN23 Lienz        0 0        .000000 .000000 8.14630 0.71831 5.79682 3.47255 9.45631 5.51154 
OLIENN51 Lienz        0 0        .000000 .000000 0.52558 3.22166 6.48087 6.58658 1.32798 6.43117 
OLIENN52 Lienz        0 0        15.3440 .000000 -28.336 6.22689 6.48606 -248.10 9.58312 6.01313 
OMALTA21 MaltaHauptst 0 0        534.596 73.4407 5.34414 8.77149 671.691 -105.65 95.4457 2.04254 
OMALTA22 MaltaHauptst 0 2 141.52 924.337 .000000 2.70271 -12.969 147.883 -662.11 417.957 -643.28 
ONAUDE11 Nauders      0 2 291.30 .000000 .000000 8.21302 1.37912 5.34691 8.16538 649.420 -513.05 
ONAUDE21 Nauders      0 0        .000000 .000000 0.21056 8.68893 8.92487 8.06972 6.95913 1.87236 
ONAUDE22 Nauders      0 0        .000000 677.853 3.91704 7.80749 0.57921 1.17237 151.634 6.52121 
OVILLA21 Villach      0 0        .000000 .000000 8.13103 -65.042 7.14819 6.20847 .000000 -45.890 
##ZXX
XLI_AU21              0 0        084.395 .000000 3.19728 -36.603 7.57073 7.50343 .000000 -63.470 
XNA_GL21              0 0        49.0095 .000000 2.52195 -37.134 0.11764 1.56346 .000000 -41.110 
##L
OGREUT21 OLIENN22 1 0 8.7893 02.988 406.1226   2109 XXXXXXXXXXXX
OLIENN11 OLIENN12 1 2 .00000 .00000 4.670446   2400 XXXXXXXXXXXX
OLIENN21 OMALTA21 1 0 6.2303 20.979 890.5526   2400 XXXXXXXXXXXX
OLIENN21 OVILLA21 1 0 1.5443 22.547 716.9971   2109 XXXXXXXXXXXX
OLIENN22 OLIENN21 1 7 .00000 .00000 3.119785   2080 XXXXXXXXXXXX
OLIENN22 OLIENN21 3 2 .00000 .00000 8.907235   2154 XXXXXXXXXXXX
OLIENN22 OMALTA22 2 0 9.2260 46.776 661.2775   2400 XXXXXXXXXXXX
OLIENN51 OLIENN52 1 7 .00000 .00000 0.426385   2400 XXXXXXXXXXXX
OMALTA21 OMALTA22 1 2 .00000 .00000 0.316114   2000 XXXXXXXXXXXX
ONAUDE22 ONAUDE21 3 7 .00000 .00000 1.844852   2400 XXXXXXXXXXXX
OLIENN23 XLI_AU21 1 0 1.9236 64.274 63.30350    637 XXXXXXXXXXXX
ONAUDE22 XNA_GL21 1 0 .27550 3.3164 0832.357   1133 XXXXXXXXXXXX
##T
OLIENN21 OLIENN11 1 0 803.9 866.9 125.4 .21968 39.963 -41.7965 0.8052   1556 XXXXXXXXXXXX
OLIENN21 OLIENN11 3 0 293.2 052.6 035.5 .18755 02.565 -37.5341 8.3397   1425 XXXXXXXXXXXX
OLIENN22 OLIENN12 2 0 421.0 083.3 941.1 .21968 44.419 -71.4919 4.1665   1554 XXXXXXXXXXXX
OLIENN22 OLIENN23 2 0 330.9 366.1 268.5 .29376 65.681 7.203407 1.5450    746 XXXXXXXXXXXX
OLIENN51 OLIENN22 1 0 047.8 560.4 553.5 .10133 9.9505 -10.8320 1.1315   1095 XXXXXXXXXXXX
OLIENN52 OLIENN22 2 0 074.8 367.1 464.9 .10133 9.5489 -58.2010 0.5208   1095 XXXXXXXXXXXX
ONAUDE21 ONAUDE11 1 0 905.0 777.3 204.3 .23350 93.615 -0.90554 2.2871   1260 XXXXXXXXXXXX
ONAUDE21 ONAUDE22 1 8 098.7 081.0 793.4 .05559 1.2178 -8.20502 .96465    564 XXXXXXXXXXXX
ONAUDE21 ONAUDE22 2 0 585.5 124.3 616.9 .05559 7.3816 -8.10831 .96465    564 XXXXXXXXXXXX
##R
OLIENN21 OLIENN11 1                    0.667 94.20 13   0 
OLIENN21 OLIENN11 3                    6.178 62.24 13   0 
OLIENN22 OLIENN12 2                    0.148 35.39 13   0 
OLIENN22 OLIENN23 2                    5.382 53.03 32   0 608.8 SYMM 
OLIENN51 OLIENN22 1                    7.293 -120. 12  -3 
OLIENN52 OLIENN22 2                    3.380 -120. 12  -3 
ONAUDE21 ONAUDE11 1                    5.408 671.8 13   0 
ONAUDE21 ONAUDE22 1                    2.387 24.60 16   0 11.73 SYMM
ONAUDE21 ONAUDE22 2                    8.012 27.82 16   0 57.62 SYMM 
